
**** 06/08/22 23:29:06 ******* PSpice Lite (March 2016) ******* ID# 10813 ****

 ** Profile: "SCHEMATIC1-Main"  [ C:\Users\FactCore\Desktop\TFG_PSpice\main-pspicefiles\schematic1\main.sim ] 


 ****     CIRCUIT DESCRIPTION


******************************************************************************




** Creating circuit file "Main.cir" 
** WARNING: THIS AUTOMATICALLY GENERATED FILE MAY BE OVERWRITTEN BY SUBSEQUENT SIMULATIONS

*Libraries: 
* Profile Libraries :
* Local Libraries :
* From [PSPICE NETLIST] section of C:\Users\FactCore\AppData\Roaming\SPB_Data\cdssetup\OrCAD_PSpice\17.2.0\PSpice.ini file:
.lib "nomd.lib" 

*Analysis directives: 
.DC LIN V_V1 0 5 0.1 
.OPTIONS ADVCONV
.PROBE64 V(alias(*)) I(alias(*)) W(alias(*)) D(alias(*)) NOISE(alias(*)) 
.INC "..\SCHEMATIC1.net" 



**** INCLUDING SCHEMATIC1.net ****
* source MAIN
R_R3         N14496 N14484  2k TC=0,0 
R_R4         0 N14496  3k TC=0,0 
V_V1         N14607 0 1Vdc
V_V2         N16002 0 12Vdc
X_U1A         N14607 N14496 N16002 N15436 N14484 TL074/301/TI
V_V3         0 N15436 12Vdc

**** RESUMING Main.cir ****
.END

**** 06/08/22 23:29:06 ******* PSpice Lite (March 2016) ******* ID# 10813 ****

 ** Profile: "SCHEMATIC1-Main"  [ C:\Users\FactCore\Desktop\TFG_PSpice\main-pspicefiles\schematic1\main.sim ] 


 ****     Diode MODEL PARAMETERS


******************************************************************************




               X_U1A.DX        
          IS  800.000000E-18 


**** 06/08/22 23:29:06 ******* PSpice Lite (March 2016) ******* ID# 10813 ****

 ** Profile: "SCHEMATIC1-Main"  [ C:\Users\FactCore\Desktop\TFG_PSpice\main-pspicefiles\schematic1\main.sim ] 


 ****     Junction FET MODEL PARAMETERS


******************************************************************************




               X_U1A.JX        
               PJF             
         VTO   -1            
        BETA  270.100000E-06 
          IS   15.000000E-12 



          JOB CONCLUDED

**** 06/08/22 23:29:06 ******* PSpice Lite (March 2016) ******* ID# 10813 ****

 ** Profile: "SCHEMATIC1-Main"  [ C:\Users\FactCore\Desktop\TFG_PSpice\main-pspicefiles\schematic1\main.sim ] 


 ****     JOB STATISTICS SUMMARY


******************************************************************************



  License check-out time            =        4.35
  Total job time (using Solver 1)   =         .02
