
**** 06/08/22 23:09:53 ******* PSpice Lite (March 2016) ******* ID# 10813 ****

 ** Profile: "SCHEMATIC1-Main"  [ C:\Users\FactCore\Desktop\TFG_PSpice\main-pspicefiles\schematic1\main.sim ] 


 ****     CIRCUIT DESCRIPTION


******************************************************************************




** Creating circuit file "Main.cir" 
** WARNING: THIS AUTOMATICALLY GENERATED FILE MAY BE OVERWRITTEN BY SUBSEQUENT SIMULATIONS

*Libraries: 
* Profile Libraries :
* Local Libraries :
* From [PSPICE NETLIST] section of C:\Users\FactCore\AppData\Roaming\SPB_Data\cdssetup\OrCAD_PSpice\17.2.0\PSpice.ini file:
.lib "nomd.lib" 

*Analysis directives: 
.DC LIN V_V1 0 5 0.1 
.OPTIONS ADVCONV
.PROBE64 V(alias(*)) I(alias(*)) W(alias(*)) D(alias(*)) NOISE(alias(*)) 
.INC "..\SCHEMATIC1.net" 



**** INCLUDING SCHEMATIC1.net ****
* source MAIN
R_R3         N14496 N14484  2k TC=0,0 
R_R4         0 N14496  3k TC=0,0 
V_V1         N14607 0 1Vdc
V_V2         N16002 0 5Vdc
X_U2         N14607 N14496 N16002 0 N14484 LM2901/5_1/TI
R_R5         N14484 0  15k TC=0,0 
V_V3         0 0 12Vdc

**** RESUMING Main.cir ****
.END

ERROR(ORPSIM-15143): Voltage source and/or inductor loop involving V_V3. You may break the loop by adding a series resistance
